
---------- Begin Simulation Statistics ----------
simSeconds                                   0.000830                       # Number of seconds simulated (Second)
simTicks                                    830245000                       # Number of ticks simulated (Tick)
finalTick                                   830245000                       # Number of ticks from beginning of simulation (restored from checkpoints and never reset) (Tick)
simFreq                                  1000000000000                       # The number of ticks per simulated second ((Tick/Second))
hostSeconds                                      2.71                       # Real time elapsed on the host (Second)
hostTickRate                                306653920                       # The number of ticks simulated per host second (ticks/s) ((Tick/Second))
hostMemory                                    9594420                       # Number of bytes of host memory used (Byte)
simInsts                                       363821                       # Number of instructions simulated (Count)
simOps                                         688641                       # Number of ops (including micro ops) simulated (Count)
hostInstRate                                   134369                       # Simulator instruction rate (inst/s) ((Count/Second))
hostOpRate                                     254332                       # Simulator op (including micro ops) rate (op/s) ((Count/Second))
system.clk_domain.clock                          1000                       # Clock period in ticks (Tick)
system.cpu.numCycles                           830245                       # Number of cpu cycles simulated (Cycle)
system.cpu.numWorkItemsStarted                      0                       # Number of work items this cpu started (Count)
system.cpu.numWorkItemsCompleted                    0                       # Number of work items this cpu completed (Count)
system.cpu.exec_context.thread_0.numInsts       363821                       # Number of instructions committed (Count)
system.cpu.exec_context.thread_0.numOps        688641                       # Number of ops (including micro ops) committed (Count)
system.cpu.exec_context.thread_0.numIntAluAccesses       669507                       # Number of integer alu accesses (Count)
system.cpu.exec_context.thread_0.numFpAluAccesses        17163                       # Number of float alu accesses (Count)
system.cpu.exec_context.thread_0.numVecAluAccesses            0                       # Number of vector alu accesses (Count)
system.cpu.exec_context.thread_0.numCallsReturns         7426                       # Number of times a function call or return occured (Count)
system.cpu.exec_context.thread_0.numCondCtrlInsts        63633                       # Number of instructions that are conditional controls (Count)
system.cpu.exec_context.thread_0.numIntInsts       669507                       # Number of integer instructions (Count)
system.cpu.exec_context.thread_0.numFpInsts        17163                       # Number of float instructions (Count)
system.cpu.exec_context.thread_0.numVecInsts            0                       # Number of vector instructions (Count)
system.cpu.exec_context.thread_0.numIntRegReads       882287                       # Number of times the integer registers were read (Count)
system.cpu.exec_context.thread_0.numIntRegWrites       490866                       # Number of times the integer registers were written (Count)
system.cpu.exec_context.thread_0.numFpRegReads        28342                       # Number of times the floating registers were read (Count)
system.cpu.exec_context.thread_0.numFpRegWrites        14183                       # Number of times the floating registers were written (Count)
system.cpu.exec_context.thread_0.numVecRegReads            0                       # Number of times the vector registers were read (Count)
system.cpu.exec_context.thread_0.numVecRegWrites            0                       # Number of times the vector registers were written (Count)
system.cpu.exec_context.thread_0.numVecPredRegReads            0                       # Number of times the predicate registers were read (Count)
system.cpu.exec_context.thread_0.numVecPredRegWrites            0                       # Number of times the predicate registers were written (Count)
system.cpu.exec_context.thread_0.numCCRegReads       416744                       # Number of times the CC registers were read (Count)
system.cpu.exec_context.thread_0.numCCRegWrites       247279                       # Number of times the CC registers were written (Count)
system.cpu.exec_context.thread_0.numMiscRegReads       283395                       # Number of times the Misc registers were read (Count)
system.cpu.exec_context.thread_0.numMiscRegWrites           18                       # Number of times the Misc registers were written (Count)
system.cpu.exec_context.thread_0.numMemRefs       123586                       # Number of memory refs (Count)
system.cpu.exec_context.thread_0.numLoadInsts        83692                       # Number of load instructions (Count)
system.cpu.exec_context.thread_0.numStoreInsts        39894                       # Number of store instructions (Count)
system.cpu.exec_context.thread_0.numIdleCycles   108.504000                       # Number of idle cycles (Cycle)
system.cpu.exec_context.thread_0.numBusyCycles 830136.496000                       # Number of busy cycles (Cycle)
system.cpu.exec_context.thread_0.notIdleFraction     0.999869                       # Percentage of non-idle cycles (Ratio)
system.cpu.exec_context.thread_0.idleFraction     0.000131                       # Percentage of idle cycles (Ratio)
system.cpu.exec_context.thread_0.numBranches        80996                       # Number of branches fetched (Count)
system.cpu.exec_context.thread_0.statExecutedInstType::No_OpClass         6481      0.94%      0.94% # Class of executed instruction. (Count)
system.cpu.exec_context.thread_0.statExecutedInstType::IntAlu       544140     78.99%     79.93% # Class of executed instruction. (Count)
system.cpu.exec_context.thread_0.statExecutedInstType::IntMult          616      0.09%     80.02% # Class of executed instruction. (Count)
system.cpu.exec_context.thread_0.statExecutedInstType::IntDiv         2408      0.35%     80.37% # Class of executed instruction. (Count)
system.cpu.exec_context.thread_0.statExecutedInstType::FloatAdd          824      0.12%     80.49% # Class of executed instruction. (Count)
system.cpu.exec_context.thread_0.statExecutedInstType::FloatCmp            0      0.00%     80.49% # Class of executed instruction. (Count)
system.cpu.exec_context.thread_0.statExecutedInstType::FloatCvt           32      0.00%     80.49% # Class of executed instruction. (Count)
system.cpu.exec_context.thread_0.statExecutedInstType::FloatMult            0      0.00%     80.49% # Class of executed instruction. (Count)
system.cpu.exec_context.thread_0.statExecutedInstType::FloatMultAcc            0      0.00%     80.49% # Class of executed instruction. (Count)
system.cpu.exec_context.thread_0.statExecutedInstType::FloatDiv            0      0.00%     80.49% # Class of executed instruction. (Count)
system.cpu.exec_context.thread_0.statExecutedInstType::FloatMisc            0      0.00%     80.49% # Class of executed instruction. (Count)
system.cpu.exec_context.thread_0.statExecutedInstType::FloatSqrt            0      0.00%     80.49% # Class of executed instruction. (Count)
system.cpu.exec_context.thread_0.statExecutedInstType::SimdAdd          356      0.05%     80.54% # Class of executed instruction. (Count)
system.cpu.exec_context.thread_0.statExecutedInstType::SimdAddAcc            0      0.00%     80.54% # Class of executed instruction. (Count)
system.cpu.exec_context.thread_0.statExecutedInstType::SimdAlu         2620      0.38%     80.92% # Class of executed instruction. (Count)
system.cpu.exec_context.thread_0.statExecutedInstType::SimdCmp            0      0.00%     80.92% # Class of executed instruction. (Count)
system.cpu.exec_context.thread_0.statExecutedInstType::SimdCvt         2762      0.40%     81.33% # Class of executed instruction. (Count)
system.cpu.exec_context.thread_0.statExecutedInstType::SimdMisc         4924      0.71%     82.04% # Class of executed instruction. (Count)
system.cpu.exec_context.thread_0.statExecutedInstType::SimdMult            0      0.00%     82.04% # Class of executed instruction. (Count)
system.cpu.exec_context.thread_0.statExecutedInstType::SimdMultAcc            0      0.00%     82.04% # Class of executed instruction. (Count)
system.cpu.exec_context.thread_0.statExecutedInstType::SimdShift          136      0.02%     82.06% # Class of executed instruction. (Count)
system.cpu.exec_context.thread_0.statExecutedInstType::SimdShiftAcc            0      0.00%     82.06% # Class of executed instruction. (Count)
system.cpu.exec_context.thread_0.statExecutedInstType::SimdDiv            0      0.00%     82.06% # Class of executed instruction. (Count)
system.cpu.exec_context.thread_0.statExecutedInstType::SimdSqrt            0      0.00%     82.06% # Class of executed instruction. (Count)
system.cpu.exec_context.thread_0.statExecutedInstType::SimdFloatAdd            0      0.00%     82.06% # Class of executed instruction. (Count)
system.cpu.exec_context.thread_0.statExecutedInstType::SimdFloatAlu            0      0.00%     82.06% # Class of executed instruction. (Count)
system.cpu.exec_context.thread_0.statExecutedInstType::SimdFloatCmp            0      0.00%     82.06% # Class of executed instruction. (Count)
system.cpu.exec_context.thread_0.statExecutedInstType::SimdFloatCvt            0      0.00%     82.06% # Class of executed instruction. (Count)
system.cpu.exec_context.thread_0.statExecutedInstType::SimdFloatDiv            0      0.00%     82.06% # Class of executed instruction. (Count)
system.cpu.exec_context.thread_0.statExecutedInstType::SimdFloatMisc            0      0.00%     82.06% # Class of executed instruction. (Count)
system.cpu.exec_context.thread_0.statExecutedInstType::SimdFloatMult            0      0.00%     82.06% # Class of executed instruction. (Count)
system.cpu.exec_context.thread_0.statExecutedInstType::SimdFloatMultAcc            0      0.00%     82.06% # Class of executed instruction. (Count)
system.cpu.exec_context.thread_0.statExecutedInstType::SimdFloatSqrt            0      0.00%     82.06% # Class of executed instruction. (Count)
system.cpu.exec_context.thread_0.statExecutedInstType::SimdReduceAdd            0      0.00%     82.06% # Class of executed instruction. (Count)
system.cpu.exec_context.thread_0.statExecutedInstType::SimdReduceAlu            0      0.00%     82.06% # Class of executed instruction. (Count)
system.cpu.exec_context.thread_0.statExecutedInstType::SimdReduceCmp            0      0.00%     82.06% # Class of executed instruction. (Count)
system.cpu.exec_context.thread_0.statExecutedInstType::SimdFloatReduceAdd            0      0.00%     82.06% # Class of executed instruction. (Count)
system.cpu.exec_context.thread_0.statExecutedInstType::SimdFloatReduceCmp            0      0.00%     82.06% # Class of executed instruction. (Count)
system.cpu.exec_context.thread_0.statExecutedInstType::SimdAes            0      0.00%     82.06% # Class of executed instruction. (Count)
system.cpu.exec_context.thread_0.statExecutedInstType::SimdAesMix            0      0.00%     82.06% # Class of executed instruction. (Count)
system.cpu.exec_context.thread_0.statExecutedInstType::SimdSha1Hash            0      0.00%     82.06% # Class of executed instruction. (Count)
system.cpu.exec_context.thread_0.statExecutedInstType::SimdSha1Hash2            0      0.00%     82.06% # Class of executed instruction. (Count)
system.cpu.exec_context.thread_0.statExecutedInstType::SimdSha256Hash            0      0.00%     82.06% # Class of executed instruction. (Count)
system.cpu.exec_context.thread_0.statExecutedInstType::SimdSha256Hash2            0      0.00%     82.06% # Class of executed instruction. (Count)
system.cpu.exec_context.thread_0.statExecutedInstType::SimdShaSigma2            0      0.00%     82.06% # Class of executed instruction. (Count)
system.cpu.exec_context.thread_0.statExecutedInstType::SimdShaSigma3            0      0.00%     82.06% # Class of executed instruction. (Count)
system.cpu.exec_context.thread_0.statExecutedInstType::SimdPredAlu            0      0.00%     82.06% # Class of executed instruction. (Count)
system.cpu.exec_context.thread_0.statExecutedInstType::MemRead        81390     11.81%     93.87% # Class of executed instruction. (Count)
system.cpu.exec_context.thread_0.statExecutedInstType::MemWrite        38372      5.57%     99.44% # Class of executed instruction. (Count)
system.cpu.exec_context.thread_0.statExecutedInstType::FloatMemRead         2302      0.33%     99.78% # Class of executed instruction. (Count)
system.cpu.exec_context.thread_0.statExecutedInstType::FloatMemWrite         1522      0.22%    100.00% # Class of executed instruction. (Count)
system.cpu.exec_context.thread_0.statExecutedInstType::IprAccess            0      0.00%    100.00% # Class of executed instruction. (Count)
system.cpu.exec_context.thread_0.statExecutedInstType::InstPrefetch            0      0.00%    100.00% # Class of executed instruction. (Count)
system.cpu.exec_context.thread_0.statExecutedInstType::total       688885                       # Class of executed instruction. (Count)
system.cpu.interrupts.clk_domain.clock          16000                       # Clock period in ticks (Tick)
system.cpu.mmu.dtb.rdAccesses                   83723                       # TLB accesses on read requests (Count)
system.cpu.mmu.dtb.wrAccesses                   39897                       # TLB accesses on write requests (Count)
system.cpu.mmu.dtb.rdMisses                       149                       # TLB misses on read requests (Count)
system.cpu.mmu.dtb.wrMisses                        32                       # TLB misses on write requests (Count)
system.cpu.mmu.dtb.walker.power_state.pwrStateResidencyTicks::UNDEFINED    830245000                       # Cumulative time (in ticks) in various power states (Tick)
system.cpu.mmu.itb.rdAccesses                       0                       # TLB accesses on read requests (Count)
system.cpu.mmu.itb.wrAccesses                  479770                       # TLB accesses on write requests (Count)
system.cpu.mmu.itb.rdMisses                         0                       # TLB misses on read requests (Count)
system.cpu.mmu.itb.wrMisses                       162                       # TLB misses on write requests (Count)
system.cpu.mmu.itb.walker.power_state.pwrStateResidencyTicks::UNDEFINED    830245000                       # Cumulative time (in ticks) in various power states (Tick)
system.cpu.power_state.numTransitions               6                       # Number of power state transitions (Count)
system.cpu.power_state.ticksClkGated::samples            3                       # Distribution of time spent in the clock gated state (Tick)
system.cpu.power_state.ticksClkGated::mean 36167.666667                       # Distribution of time spent in the clock gated state (Tick)
system.cpu.power_state.ticksClkGated::stdev  5859.465277                       # Distribution of time spent in the clock gated state (Tick)
system.cpu.power_state.ticksClkGated::1000-5e+10            3    100.00%    100.00% # Distribution of time spent in the clock gated state (Tick)
system.cpu.power_state.ticksClkGated::min_value        29501                       # Distribution of time spent in the clock gated state (Tick)
system.cpu.power_state.ticksClkGated::max_value        40501                       # Distribution of time spent in the clock gated state (Tick)
system.cpu.power_state.ticksClkGated::total            3                       # Distribution of time spent in the clock gated state (Tick)
system.cpu.power_state.pwrStateResidencyTicks::ON    830136497                       # Cumulative time (in ticks) in various power states (Tick)
system.cpu.power_state.pwrStateResidencyTicks::CLK_GATED       108503                       # Cumulative time (in ticks) in various power states (Tick)
system.cpu.thread_0.numInsts                        0                       # Number of Instructions committed (Count)
system.cpu.thread_0.numOps                          0                       # Number of Ops committed (Count)
system.cpu.thread_0.numMemRefs                      0                       # Number of Memory References (Count)
system.cpu.workload.numSyscalls                   188                       # Number of system calls (Count)
system.cpu.workload.drivers.device.power_state.pwrStateResidencyTicks::UNDEFINED    830245000                       # Cumulative time (in ticks) in various power states (Tick)
system.mem_ctrls.avgPriority_ruby.dir_cntrl0::samples      3658.00                       # Average QoS priority value for accepted requests (Count)
system.mem_ctrls.priorityMinLatency      0.000000018750                       # per QoS priority minimum request to response latency (Second)
system.mem_ctrls.priorityMaxLatency      0.000000579500                       # per QoS priority maximum request to response latency (Second)
system.mem_ctrls.numReadWriteTurnArounds            0                       # Number of turnarounds from READ to WRITE (Count)
system.mem_ctrls.numWriteReadTurnArounds            0                       # Number of turnarounds from WRITE to READ (Count)
system.mem_ctrls.numStayReadState                7523                       # Number of times bus staying in READ state (Count)
system.mem_ctrls.numStayWriteState                  0                       # Number of times bus staying in WRITE state (Count)
system.mem_ctrls.readReqs                        3655                       # Number of read requests accepted (Count)
system.mem_ctrls.writeReqs                          5                       # Number of write requests accepted (Count)
system.mem_ctrls.readBursts                      3655                       # Number of controller read bursts, including those serviced by the write queue (Count)
system.mem_ctrls.writeBursts                        5                       # Number of controller write bursts, including those merged in the write queue (Count)
system.mem_ctrls.servicedByWrQ                      2                       # Number of controller read bursts serviced by the write queue (Count)
system.mem_ctrls.mergedWrBursts                     0                       # Number of controller write bursts merged with an existing one (Count)
system.mem_ctrls.neitherReadNorWriteReqs            0                       # Number of requests that are neither read nor write (Count)
system.mem_ctrls.avgRdQLen                       1.00                       # Average read queue length when enqueuing ((Count/Tick))
system.mem_ctrls.avgWrQLen                       1.66                       # Average write queue length when enqueuing ((Count/Tick))
system.mem_ctrls.numRdRetry                         0                       # Number of times read queue was full causing retry (Count)
system.mem_ctrls.numWrRetry                         0                       # Number of times write queue was full causing retry (Count)
system.mem_ctrls.readPktSize::0                     0                       # Read request sizes (log2) (Count)
system.mem_ctrls.readPktSize::1                     0                       # Read request sizes (log2) (Count)
system.mem_ctrls.readPktSize::2                     0                       # Read request sizes (log2) (Count)
system.mem_ctrls.readPktSize::3                     0                       # Read request sizes (log2) (Count)
system.mem_ctrls.readPktSize::4                     0                       # Read request sizes (log2) (Count)
system.mem_ctrls.readPktSize::5                     0                       # Read request sizes (log2) (Count)
system.mem_ctrls.readPktSize::6                  3655                       # Read request sizes (log2) (Count)
system.mem_ctrls.writePktSize::0                    0                       # Write request sizes (log2) (Count)
system.mem_ctrls.writePktSize::1                    0                       # Write request sizes (log2) (Count)
system.mem_ctrls.writePktSize::2                    0                       # Write request sizes (log2) (Count)
system.mem_ctrls.writePktSize::3                    0                       # Write request sizes (log2) (Count)
system.mem_ctrls.writePktSize::4                    1                       # Write request sizes (log2) (Count)
system.mem_ctrls.writePktSize::5                    0                       # Write request sizes (log2) (Count)
system.mem_ctrls.writePktSize::6                    4                       # Write request sizes (log2) (Count)
system.mem_ctrls.rdQLenPdf::0                    3653                       # What read queue length does an incoming req see (Count)
system.mem_ctrls.rdQLenPdf::1                       0                       # What read queue length does an incoming req see (Count)
system.mem_ctrls.rdQLenPdf::2                       0                       # What read queue length does an incoming req see (Count)
system.mem_ctrls.rdQLenPdf::3                       0                       # What read queue length does an incoming req see (Count)
system.mem_ctrls.rdQLenPdf::4                       0                       # What read queue length does an incoming req see (Count)
system.mem_ctrls.rdQLenPdf::5                       0                       # What read queue length does an incoming req see (Count)
system.mem_ctrls.rdQLenPdf::6                       0                       # What read queue length does an incoming req see (Count)
system.mem_ctrls.rdQLenPdf::7                       0                       # What read queue length does an incoming req see (Count)
system.mem_ctrls.rdQLenPdf::8                       0                       # What read queue length does an incoming req see (Count)
system.mem_ctrls.rdQLenPdf::9                       0                       # What read queue length does an incoming req see (Count)
system.mem_ctrls.rdQLenPdf::10                      0                       # What read queue length does an incoming req see (Count)
system.mem_ctrls.rdQLenPdf::11                      0                       # What read queue length does an incoming req see (Count)
system.mem_ctrls.rdQLenPdf::12                      0                       # What read queue length does an incoming req see (Count)
system.mem_ctrls.rdQLenPdf::13                      0                       # What read queue length does an incoming req see (Count)
system.mem_ctrls.rdQLenPdf::14                      0                       # What read queue length does an incoming req see (Count)
system.mem_ctrls.rdQLenPdf::15                      0                       # What read queue length does an incoming req see (Count)
system.mem_ctrls.rdQLenPdf::16                      0                       # What read queue length does an incoming req see (Count)
system.mem_ctrls.rdQLenPdf::17                      0                       # What read queue length does an incoming req see (Count)
system.mem_ctrls.rdQLenPdf::18                      0                       # What read queue length does an incoming req see (Count)
system.mem_ctrls.rdQLenPdf::19                      0                       # What read queue length does an incoming req see (Count)
system.mem_ctrls.rdQLenPdf::20                      0                       # What read queue length does an incoming req see (Count)
system.mem_ctrls.rdQLenPdf::21                      0                       # What read queue length does an incoming req see (Count)
system.mem_ctrls.rdQLenPdf::22                      0                       # What read queue length does an incoming req see (Count)
system.mem_ctrls.rdQLenPdf::23                      0                       # What read queue length does an incoming req see (Count)
system.mem_ctrls.rdQLenPdf::24                      0                       # What read queue length does an incoming req see (Count)
system.mem_ctrls.rdQLenPdf::25                      0                       # What read queue length does an incoming req see (Count)
system.mem_ctrls.rdQLenPdf::26                      0                       # What read queue length does an incoming req see (Count)
system.mem_ctrls.rdQLenPdf::27                      0                       # What read queue length does an incoming req see (Count)
system.mem_ctrls.rdQLenPdf::28                      0                       # What read queue length does an incoming req see (Count)
system.mem_ctrls.rdQLenPdf::29                      0                       # What read queue length does an incoming req see (Count)
system.mem_ctrls.rdQLenPdf::30                      0                       # What read queue length does an incoming req see (Count)
system.mem_ctrls.rdQLenPdf::31                      0                       # What read queue length does an incoming req see (Count)
system.mem_ctrls.wrQLenPdf::0                       1                       # What write queue length does an incoming req see (Count)
system.mem_ctrls.wrQLenPdf::1                       1                       # What write queue length does an incoming req see (Count)
system.mem_ctrls.wrQLenPdf::2                       1                       # What write queue length does an incoming req see (Count)
system.mem_ctrls.wrQLenPdf::3                       1                       # What write queue length does an incoming req see (Count)
system.mem_ctrls.wrQLenPdf::4                       1                       # What write queue length does an incoming req see (Count)
system.mem_ctrls.wrQLenPdf::5                       0                       # What write queue length does an incoming req see (Count)
system.mem_ctrls.wrQLenPdf::6                       0                       # What write queue length does an incoming req see (Count)
system.mem_ctrls.wrQLenPdf::7                       0                       # What write queue length does an incoming req see (Count)
system.mem_ctrls.wrQLenPdf::8                       0                       # What write queue length does an incoming req see (Count)
system.mem_ctrls.wrQLenPdf::9                       0                       # What write queue length does an incoming req see (Count)
system.mem_ctrls.wrQLenPdf::10                      0                       # What write queue length does an incoming req see (Count)
system.mem_ctrls.wrQLenPdf::11                      0                       # What write queue length does an incoming req see (Count)
system.mem_ctrls.wrQLenPdf::12                      0                       # What write queue length does an incoming req see (Count)
system.mem_ctrls.wrQLenPdf::13                      0                       # What write queue length does an incoming req see (Count)
system.mem_ctrls.wrQLenPdf::14                      0                       # What write queue length does an incoming req see (Count)
system.mem_ctrls.wrQLenPdf::15                      0                       # What write queue length does an incoming req see (Count)
system.mem_ctrls.wrQLenPdf::16                      0                       # What write queue length does an incoming req see (Count)
system.mem_ctrls.wrQLenPdf::17                      0                       # What write queue length does an incoming req see (Count)
system.mem_ctrls.wrQLenPdf::18                      0                       # What write queue length does an incoming req see (Count)
system.mem_ctrls.wrQLenPdf::19                      0                       # What write queue length does an incoming req see (Count)
system.mem_ctrls.wrQLenPdf::20                      0                       # What write queue length does an incoming req see (Count)
system.mem_ctrls.wrQLenPdf::21                      0                       # What write queue length does an incoming req see (Count)
system.mem_ctrls.wrQLenPdf::22                      0                       # What write queue length does an incoming req see (Count)
system.mem_ctrls.wrQLenPdf::23                      0                       # What write queue length does an incoming req see (Count)
system.mem_ctrls.wrQLenPdf::24                      0                       # What write queue length does an incoming req see (Count)
system.mem_ctrls.wrQLenPdf::25                      0                       # What write queue length does an incoming req see (Count)
system.mem_ctrls.wrQLenPdf::26                      0                       # What write queue length does an incoming req see (Count)
system.mem_ctrls.wrQLenPdf::27                      0                       # What write queue length does an incoming req see (Count)
system.mem_ctrls.wrQLenPdf::28                      0                       # What write queue length does an incoming req see (Count)
system.mem_ctrls.wrQLenPdf::29                      0                       # What write queue length does an incoming req see (Count)
system.mem_ctrls.wrQLenPdf::30                      0                       # What write queue length does an incoming req see (Count)
system.mem_ctrls.wrQLenPdf::31                      0                       # What write queue length does an incoming req see (Count)
system.mem_ctrls.wrQLenPdf::32                      0                       # What write queue length does an incoming req see (Count)
system.mem_ctrls.wrQLenPdf::33                      0                       # What write queue length does an incoming req see (Count)
system.mem_ctrls.wrQLenPdf::34                      0                       # What write queue length does an incoming req see (Count)
system.mem_ctrls.wrQLenPdf::35                      0                       # What write queue length does an incoming req see (Count)
system.mem_ctrls.wrQLenPdf::36                      0                       # What write queue length does an incoming req see (Count)
system.mem_ctrls.wrQLenPdf::37                      0                       # What write queue length does an incoming req see (Count)
system.mem_ctrls.wrQLenPdf::38                      0                       # What write queue length does an incoming req see (Count)
system.mem_ctrls.wrQLenPdf::39                      0                       # What write queue length does an incoming req see (Count)
system.mem_ctrls.wrQLenPdf::40                      0                       # What write queue length does an incoming req see (Count)
system.mem_ctrls.wrQLenPdf::41                      0                       # What write queue length does an incoming req see (Count)
system.mem_ctrls.wrQLenPdf::42                      0                       # What write queue length does an incoming req see (Count)
system.mem_ctrls.wrQLenPdf::43                      0                       # What write queue length does an incoming req see (Count)
system.mem_ctrls.wrQLenPdf::44                      0                       # What write queue length does an incoming req see (Count)
system.mem_ctrls.wrQLenPdf::45                      0                       # What write queue length does an incoming req see (Count)
system.mem_ctrls.wrQLenPdf::46                      0                       # What write queue length does an incoming req see (Count)
system.mem_ctrls.wrQLenPdf::47                      0                       # What write queue length does an incoming req see (Count)
system.mem_ctrls.wrQLenPdf::48                      0                       # What write queue length does an incoming req see (Count)
system.mem_ctrls.wrQLenPdf::49                      0                       # What write queue length does an incoming req see (Count)
system.mem_ctrls.wrQLenPdf::50                      0                       # What write queue length does an incoming req see (Count)
system.mem_ctrls.wrQLenPdf::51                      0                       # What write queue length does an incoming req see (Count)
system.mem_ctrls.wrQLenPdf::52                      0                       # What write queue length does an incoming req see (Count)
system.mem_ctrls.wrQLenPdf::53                      0                       # What write queue length does an incoming req see (Count)
system.mem_ctrls.wrQLenPdf::54                      0                       # What write queue length does an incoming req see (Count)
system.mem_ctrls.wrQLenPdf::55                      0                       # What write queue length does an incoming req see (Count)
system.mem_ctrls.wrQLenPdf::56                      0                       # What write queue length does an incoming req see (Count)
system.mem_ctrls.wrQLenPdf::57                      0                       # What write queue length does an incoming req see (Count)
system.mem_ctrls.wrQLenPdf::58                      0                       # What write queue length does an incoming req see (Count)
system.mem_ctrls.wrQLenPdf::59                      0                       # What write queue length does an incoming req see (Count)
system.mem_ctrls.wrQLenPdf::60                      0                       # What write queue length does an incoming req see (Count)
system.mem_ctrls.wrQLenPdf::61                      0                       # What write queue length does an incoming req see (Count)
system.mem_ctrls.wrQLenPdf::62                      0                       # What write queue length does an incoming req see (Count)
system.mem_ctrls.wrQLenPdf::63                      0                       # What write queue length does an incoming req see (Count)
system.mem_ctrls.bytesReadWrQ                     128                       # Total number of bytes read from write queue (Byte)
system.mem_ctrls.bytesReadSys                  233920                       # Total read bytes from the system interface side (Byte)
system.mem_ctrls.bytesWrittenSys                  272                       # Total written bytes from the system interface side (Byte)
system.mem_ctrls.avgRdBWSys              281748158.67605346                       # Average system read bandwidth in Byte/s ((Byte/Second))
system.mem_ctrls.avgWrBWSys              327614.13799541                       # Average system write bandwidth in Byte/s ((Byte/Second))
system.mem_ctrls.totGap                     830177000                       # Total gap between requests (Tick)
system.mem_ctrls.avgGap                     226824.32                       # Average gap between requests ((Tick/Count))
system.mem_ctrls.requestorReadBytes::ruby.dir_cntrl0       233792                       # Per-requestor bytes read from memory (Byte)
system.mem_ctrls.requestorReadRate::ruby.dir_cntrl0 281593987.316996812820                       # Per-requestor bytes read from memory rate ((Byte/Second))
system.mem_ctrls.requestorReadAccesses::ruby.dir_cntrl0         3655                       # Per-requestor read serviced memory accesses (Count)
system.mem_ctrls.requestorWriteAccesses::ruby.dir_cntrl0            5                       # Per-requestor write serviced memory accesses (Count)
system.mem_ctrls.requestorReadTotalLat::ruby.dir_cntrl0     90425750                       # Per-requestor read total memory access latency (Tick)
system.mem_ctrls.requestorReadAvgLat::ruby.dir_cntrl0     24740.29                       # Per-requestor read average memory access latency ((Tick/Count))
system.mem_ctrls.requestorWriteAvgLat::ruby.dir_cntrl0         0.00                       # Per-requestor write average memory access latency ((Tick/Count))
system.mem_ctrls.dram.bytesRead::ruby.dir_cntrl0       233920                       # Number of bytes read from this memory (Byte)
system.mem_ctrls.dram.bytesRead::total         233920                       # Number of bytes read from this memory (Byte)
system.mem_ctrls.dram.bytesWritten::ruby.dir_cntrl0          272                       # Number of bytes written to this memory (Byte)
system.mem_ctrls.dram.bytesWritten::total          272                       # Number of bytes written to this memory (Byte)
system.mem_ctrls.dram.numReads::ruby.dir_cntrl0         3655                       # Number of read requests responded to by this memory (Count)
system.mem_ctrls.dram.numReads::total            3655                       # Number of read requests responded to by this memory (Count)
system.mem_ctrls.dram.numWrites::ruby.dir_cntrl0            5                       # Number of write requests responded to by this memory (Count)
system.mem_ctrls.dram.numWrites::total              5                       # Number of write requests responded to by this memory (Count)
system.mem_ctrls.dram.bwRead::ruby.dir_cntrl0    281748159                       # Total read bandwidth from this memory ((Byte/Second))
system.mem_ctrls.dram.bwRead::total         281748159                       # Total read bandwidth from this memory ((Byte/Second))
system.mem_ctrls.dram.bwWrite::ruby.dir_cntrl0       327614                       # Write bandwidth from this memory ((Byte/Second))
system.mem_ctrls.dram.bwWrite::total           327614                       # Write bandwidth from this memory ((Byte/Second))
system.mem_ctrls.dram.bwTotal::ruby.dir_cntrl0    282075773                       # Total bandwidth to/from this memory ((Byte/Second))
system.mem_ctrls.dram.bwTotal::total        282075773                       # Total bandwidth to/from this memory ((Byte/Second))
system.mem_ctrls.dram.readBursts                 3653                       # Number of DRAM read bursts (Count)
system.mem_ctrls.dram.writeBursts                   0                       # Number of DRAM write bursts (Count)
system.mem_ctrls.dram.perBankRdBursts::0          301                       # Per bank write bursts (Count)
system.mem_ctrls.dram.perBankRdBursts::1          283                       # Per bank write bursts (Count)
system.mem_ctrls.dram.perBankRdBursts::2          292                       # Per bank write bursts (Count)
system.mem_ctrls.dram.perBankRdBursts::3          246                       # Per bank write bursts (Count)
system.mem_ctrls.dram.perBankRdBursts::4          273                       # Per bank write bursts (Count)
system.mem_ctrls.dram.perBankRdBursts::5          166                       # Per bank write bursts (Count)
system.mem_ctrls.dram.perBankRdBursts::6          232                       # Per bank write bursts (Count)
system.mem_ctrls.dram.perBankRdBursts::7          164                       # Per bank write bursts (Count)
system.mem_ctrls.dram.perBankRdBursts::8          184                       # Per bank write bursts (Count)
system.mem_ctrls.dram.perBankRdBursts::9          283                       # Per bank write bursts (Count)
system.mem_ctrls.dram.perBankRdBursts::10          274                       # Per bank write bursts (Count)
system.mem_ctrls.dram.perBankRdBursts::11          216                       # Per bank write bursts (Count)
system.mem_ctrls.dram.perBankRdBursts::12          144                       # Per bank write bursts (Count)
system.mem_ctrls.dram.perBankRdBursts::13          159                       # Per bank write bursts (Count)
system.mem_ctrls.dram.perBankRdBursts::14          227                       # Per bank write bursts (Count)
system.mem_ctrls.dram.perBankRdBursts::15          209                       # Per bank write bursts (Count)
system.mem_ctrls.dram.perBankWrBursts::0            0                       # Per bank write bursts (Count)
system.mem_ctrls.dram.perBankWrBursts::1            0                       # Per bank write bursts (Count)
system.mem_ctrls.dram.perBankWrBursts::2            0                       # Per bank write bursts (Count)
system.mem_ctrls.dram.perBankWrBursts::3            0                       # Per bank write bursts (Count)
system.mem_ctrls.dram.perBankWrBursts::4            0                       # Per bank write bursts (Count)
system.mem_ctrls.dram.perBankWrBursts::5            0                       # Per bank write bursts (Count)
system.mem_ctrls.dram.perBankWrBursts::6            0                       # Per bank write bursts (Count)
system.mem_ctrls.dram.perBankWrBursts::7            0                       # Per bank write bursts (Count)
system.mem_ctrls.dram.perBankWrBursts::8            0                       # Per bank write bursts (Count)
system.mem_ctrls.dram.perBankWrBursts::9            0                       # Per bank write bursts (Count)
system.mem_ctrls.dram.perBankWrBursts::10            0                       # Per bank write bursts (Count)
system.mem_ctrls.dram.perBankWrBursts::11            0                       # Per bank write bursts (Count)
system.mem_ctrls.dram.perBankWrBursts::12            0                       # Per bank write bursts (Count)
system.mem_ctrls.dram.perBankWrBursts::13            0                       # Per bank write bursts (Count)
system.mem_ctrls.dram.perBankWrBursts::14            0                       # Per bank write bursts (Count)
system.mem_ctrls.dram.perBankWrBursts::15            0                       # Per bank write bursts (Count)
system.mem_ctrls.dram.totQLat                21932000                       # Total ticks spent queuing (Tick)
system.mem_ctrls.dram.totBusLat              18265000                       # Total ticks spent in databus transfers (Tick)
system.mem_ctrls.dram.totMemAccLat           90425750                       # Total ticks spent from burst creation until serviced by the DRAM (Tick)
system.mem_ctrls.dram.avgQLat                 6003.83                       # Average queueing delay per DRAM burst ((Tick/Count))
system.mem_ctrls.dram.avgBusLat               5000.00                       # Average bus latency per DRAM burst ((Tick/Count))
system.mem_ctrls.dram.avgMemAccLat           24753.83                       # Average memory access latency per DRAM burst ((Tick/Count))
system.mem_ctrls.dram.readRowHits                2997                       # Number of row buffer hits during reads (Count)
system.mem_ctrls.dram.writeRowHits                  0                       # Number of row buffer hits during writes (Count)
system.mem_ctrls.dram.readRowHitRate            82.04                       # Row buffer hit rate for reads (Ratio)
system.mem_ctrls.dram.writeRowHitRate             nan                       # Row buffer hit rate for writes (Ratio)
system.mem_ctrls.dram.bytesPerActivate::samples          647                       # Bytes accessed per row activation (Byte)
system.mem_ctrls.dram.bytesPerActivate::mean   357.786708                       # Bytes accessed per row activation (Byte)
system.mem_ctrls.dram.bytesPerActivate::gmean   223.217471                       # Bytes accessed per row activation (Byte)
system.mem_ctrls.dram.bytesPerActivate::stdev   336.971245                       # Bytes accessed per row activation (Byte)
system.mem_ctrls.dram.bytesPerActivate::0-127          174     26.89%     26.89% # Bytes accessed per row activation (Byte)
system.mem_ctrls.dram.bytesPerActivate::128-255          162     25.04%     51.93% # Bytes accessed per row activation (Byte)
system.mem_ctrls.dram.bytesPerActivate::256-383           86     13.29%     65.22% # Bytes accessed per row activation (Byte)
system.mem_ctrls.dram.bytesPerActivate::384-511           48      7.42%     72.64% # Bytes accessed per row activation (Byte)
system.mem_ctrls.dram.bytesPerActivate::512-639           32      4.95%     77.59% # Bytes accessed per row activation (Byte)
system.mem_ctrls.dram.bytesPerActivate::640-767           27      4.17%     81.76% # Bytes accessed per row activation (Byte)
system.mem_ctrls.dram.bytesPerActivate::768-895           16      2.47%     84.23% # Bytes accessed per row activation (Byte)
system.mem_ctrls.dram.bytesPerActivate::896-1023           13      2.01%     86.24% # Bytes accessed per row activation (Byte)
system.mem_ctrls.dram.bytesPerActivate::1024-1151           89     13.76%    100.00% # Bytes accessed per row activation (Byte)
system.mem_ctrls.dram.bytesPerActivate::total          647                       # Bytes accessed per row activation (Byte)
system.mem_ctrls.dram.bytesRead                233792                       # Total bytes read (Byte)
system.mem_ctrls.dram.bytesWritten                  0                       # Total bytes written (Byte)
system.mem_ctrls.dram.avgRdBW              281.593987                       # Average DRAM read bandwidth in MiBytes/s ((Byte/Second))
system.mem_ctrls.dram.avgWrBW                       0                       # Average DRAM write bandwidth in MiBytes/s ((Byte/Second))
system.mem_ctrls.dram.peakBW                 12800.00                       # Theoretical peak bandwidth in MiByte/s ((Byte/Second))
system.mem_ctrls.dram.busUtil                    2.20                       # Data bus utilization in percentage (Ratio)
system.mem_ctrls.dram.busUtilRead                2.20                       # Data bus utilization in percentage for reads (Ratio)
system.mem_ctrls.dram.busUtilWrite               0.00                       # Data bus utilization in percentage for writes (Ratio)
system.mem_ctrls.dram.pageHitRate               82.04                       # Row buffer hit rate, read and write combined (Ratio)
system.mem_ctrls.dram.power_state.pwrStateResidencyTicks::UNDEFINED    830245000                       # Cumulative time (in ticks) in various power states (Tick)
system.mem_ctrls.dram.rank0.actEnergy         2284800                       # Energy for activate commands per rank (pJ) (Joule)
system.mem_ctrls.dram.rank0.preEnergy         1199220                       # Energy for precharge commands per rank (pJ) (Joule)
system.mem_ctrls.dram.rank0.readEnergy       13972980                       # Energy for read commands per rank (pJ) (Joule)
system.mem_ctrls.dram.rank0.writeEnergy             0                       # Energy for write commands per rank (pJ) (Joule)
system.mem_ctrls.dram.rank0.refreshEnergy 65151840.000000                       # Energy for refresh commands per rank (pJ) (Joule)
system.mem_ctrls.dram.rank0.actBackEnergy    199667580                       # Energy for active background per rank (pJ) (Joule)
system.mem_ctrls.dram.rank0.preBackEnergy    150672960                       # Energy for precharge background per rank (pJ) (Joule)
system.mem_ctrls.dram.rank0.actPowerDownEnergy            0                       # Energy for active power-down per rank (pJ) (Joule)
system.mem_ctrls.dram.rank0.prePowerDownEnergy            0                       # Energy for precharge power-down per rank (pJ) (Joule)
system.mem_ctrls.dram.rank0.selfRefreshEnergy            0                       # Energy for self refresh per rank (pJ) (Joule)
system.mem_ctrls.dram.rank0.totalEnergy     432949380                       # Total energy per rank (pJ) (Joule)
system.mem_ctrls.dram.rank0.averagePower   521.471831                       # Core power per rank (mW) (Watt)
system.mem_ctrls.dram.rank0.totalIdleTime            0                       # Total Idle time Per DRAM Rank (Tick)
system.mem_ctrls.dram.rank0.pwrStateTime::IDLE    389821000                       # Time in different power states (Tick)
system.mem_ctrls.dram.rank0.pwrStateTime::REF     27560000                       # Time in different power states (Tick)
system.mem_ctrls.dram.rank0.pwrStateTime::SREF            0                       # Time in different power states (Tick)
system.mem_ctrls.dram.rank0.pwrStateTime::PRE_PDN            0                       # Time in different power states (Tick)
system.mem_ctrls.dram.rank0.pwrStateTime::ACT    412864000                       # Time in different power states (Tick)
system.mem_ctrls.dram.rank0.pwrStateTime::ACT_PDN            0                       # Time in different power states (Tick)
system.mem_ctrls.dram.rank1.actEnergy         2399040                       # Energy for activate commands per rank (pJ) (Joule)
system.mem_ctrls.dram.rank1.preEnergy         1256145                       # Energy for precharge commands per rank (pJ) (Joule)
system.mem_ctrls.dram.rank1.readEnergy       12109440                       # Energy for read commands per rank (pJ) (Joule)
system.mem_ctrls.dram.rank1.writeEnergy             0                       # Energy for write commands per rank (pJ) (Joule)
system.mem_ctrls.dram.rank1.refreshEnergy 65151840.000000                       # Energy for refresh commands per rank (pJ) (Joule)
system.mem_ctrls.dram.rank1.actBackEnergy    205939290                       # Energy for active background per rank (pJ) (Joule)
system.mem_ctrls.dram.rank1.preBackEnergy    145391520                       # Energy for precharge background per rank (pJ) (Joule)
system.mem_ctrls.dram.rank1.actPowerDownEnergy            0                       # Energy for active power-down per rank (pJ) (Joule)
system.mem_ctrls.dram.rank1.prePowerDownEnergy            0                       # Energy for precharge power-down per rank (pJ) (Joule)
system.mem_ctrls.dram.rank1.selfRefreshEnergy            0                       # Energy for self refresh per rank (pJ) (Joule)
system.mem_ctrls.dram.rank1.totalEnergy     432247275                       # Total energy per rank (pJ) (Joule)
system.mem_ctrls.dram.rank1.averagePower   520.626171                       # Core power per rank (mW) (Watt)
system.mem_ctrls.dram.rank1.totalIdleTime            0                       # Total Idle time Per DRAM Rank (Tick)
system.mem_ctrls.dram.rank1.pwrStateTime::IDLE    376092750                       # Time in different power states (Tick)
system.mem_ctrls.dram.rank1.pwrStateTime::REF     27560000                       # Time in different power states (Tick)
system.mem_ctrls.dram.rank1.pwrStateTime::SREF            0                       # Time in different power states (Tick)
system.mem_ctrls.dram.rank1.pwrStateTime::PRE_PDN            0                       # Time in different power states (Tick)
system.mem_ctrls.dram.rank1.pwrStateTime::ACT    426592250                       # Time in different power states (Tick)
system.mem_ctrls.dram.rank1.pwrStateTime::ACT_PDN            0                       # Time in different power states (Tick)
system.mem_ctrls.power_state.pwrStateResidencyTicks::UNDEFINED    830245000                       # Cumulative time (in ticks) in various power states (Tick)
system.piobus.power_state.pwrStateResidencyTicks::UNDEFINED    830245000                       # Cumulative time (in ticks) in various power states (Tick)
system.ruby.delayHistogram::bucket_size             1                       # delay histogram for all message (Unspecified)
system.ruby.delayHistogram::max_bucket              9                       # delay histogram for all message (Unspecified)
system.ruby.delayHistogram::samples             18238                       # delay histogram for all message (Unspecified)
system.ruby.delayHistogram::mean             0.227218                       # delay histogram for all message (Unspecified)
system.ruby.delayHistogram::stdev            1.328329                       # delay histogram for all message (Unspecified)
system.ruby.delayHistogram               |       17719     97.15%     97.15% |           0      0.00%     97.15% |           0      0.00%     97.15% |           0      0.00%     97.15% |           2      0.01%     97.17% |           0      0.00%     97.17% |           0      0.00%     97.17% |           0      0.00%     97.17% |         517      2.83%    100.00% |           0      0.00%    100.00% # delay histogram for all message (Unspecified)
system.ruby.delayHistogram::total               18238                       # delay histogram for all message (Unspecified)
system.ruby.m_outstandReqHistSeqr::bucket_size            1                       (Unspecified)
system.ruby.m_outstandReqHistSeqr::max_bucket            9                       (Unspecified)
system.ruby.m_outstandReqHistSeqr::samples       603290                       (Unspecified)
system.ruby.m_outstandReqHistSeqr::mean      1.000056                       (Unspecified)
system.ruby.m_outstandReqHistSeqr::gmean     1.000039                       (Unspecified)
system.ruby.m_outstandReqHistSeqr::stdev     0.007507                       (Unspecified)
system.ruby.m_outstandReqHistSeqr        |           0      0.00%      0.00% |      603256     99.99%     99.99% |          34      0.01%    100.00% |           0      0.00%    100.00% |           0      0.00%    100.00% |           0      0.00%    100.00% |           0      0.00%    100.00% |           0      0.00%    100.00% |           0      0.00%    100.00% |           0      0.00%    100.00% (Unspecified)
system.ruby.m_outstandReqHistSeqr::total       603290                       (Unspecified)
system.ruby.m_latencyHistSeqr::bucket_size          128                       (Unspecified)
system.ruby.m_latencyHistSeqr::max_bucket         1279                       (Unspecified)
system.ruby.m_latencyHistSeqr::samples         603290                       (Unspecified)
system.ruby.m_latencyHistSeqr::mean          1.751010                       (Unspecified)
system.ruby.m_latencyHistSeqr::gmean         1.031043                       (Unspecified)
system.ruby.m_latencyHistSeqr::stdev        10.422420                       (Unspecified)
system.ruby.m_latencyHistSeqr            |      602634     99.89%     99.89% |         603      0.10%     99.99% |           5      0.00%     99.99% |          11      0.00%     99.99% |          26      0.00%    100.00% |          11      0.00%    100.00% |           0      0.00%    100.00% |           0      0.00%    100.00% |           0      0.00%    100.00% |           0      0.00%    100.00% (Unspecified)
system.ruby.m_latencyHistSeqr::total           603290                       (Unspecified)
system.ruby.m_hitLatencyHistSeqr::bucket_size            1                       (Unspecified)
system.ruby.m_hitLatencyHistSeqr::max_bucket            9                       (Unspecified)
system.ruby.m_hitLatencyHistSeqr::samples       599294                       (Unspecified)
system.ruby.m_hitLatencyHistSeqr::mean              1                       (Unspecified)
system.ruby.m_hitLatencyHistSeqr::gmean             1                       (Unspecified)
system.ruby.m_hitLatencyHistSeqr         |           0      0.00%      0.00% |      599294    100.00%    100.00% |           0      0.00%    100.00% |           0      0.00%    100.00% |           0      0.00%    100.00% |           0      0.00%    100.00% |           0      0.00%    100.00% |           0      0.00%    100.00% |           0      0.00%    100.00% |           0      0.00%    100.00% (Unspecified)
system.ruby.m_hitLatencyHistSeqr::total        599294                       (Unspecified)
system.ruby.m_missLatencyHistSeqr::bucket_size          128                       (Unspecified)
system.ruby.m_missLatencyHistSeqr::max_bucket         1279                       (Unspecified)
system.ruby.m_missLatencyHistSeqr::samples         3996                       (Unspecified)
system.ruby.m_missLatencyHistSeqr::mean    114.382633                       (Unspecified)
system.ruby.m_missLatencyHistSeqr::gmean   101.034148                       (Unspecified)
system.ruby.m_missLatencyHistSeqr::stdev    60.250989                       (Unspecified)
system.ruby.m_missLatencyHistSeqr        |        3340     83.58%     83.58% |         603     15.09%     98.67% |           5      0.13%     98.80% |          11      0.28%     99.07% |          26      0.65%     99.72% |          11      0.28%    100.00% |           0      0.00%    100.00% |           0      0.00%    100.00% |           0      0.00%    100.00% |           0      0.00%    100.00% (Unspecified)
system.ruby.m_missLatencyHistSeqr::total         3996                       (Unspecified)
system.ruby.delayVCHist.vnet_0::bucket_size            1                       # delay histogram for vnet_0 (Unspecified)
system.ruby.delayVCHist.vnet_0::max_bucket            9                       # delay histogram for vnet_0 (Unspecified)
system.ruby.delayVCHist.vnet_0::samples          8719                       # delay histogram for vnet_0 (Unspecified)
system.ruby.delayVCHist.vnet_0::mean         0.474366                       # delay histogram for vnet_0 (Unspecified)
system.ruby.delayVCHist.vnet_0::stdev        1.889528                       # delay histogram for vnet_0 (Unspecified)
system.ruby.delayVCHist.vnet_0           |        8202     94.07%     94.07% |           0      0.00%     94.07% |           0      0.00%     94.07% |           0      0.00%     94.07% |           0      0.00%     94.07% |           0      0.00%     94.07% |           0      0.00%     94.07% |           0      0.00%     94.07% |         517      5.93%    100.00% |           0      0.00%    100.00% # delay histogram for vnet_0 (Unspecified)
system.ruby.delayVCHist.vnet_0::total            8719                       # delay histogram for vnet_0 (Unspecified)
system.ruby.delayVCHist.vnet_1::bucket_size            1                       # delay histogram for vnet_1 (Unspecified)
system.ruby.delayVCHist.vnet_1::max_bucket            9                       # delay histogram for vnet_1 (Unspecified)
system.ruby.delayVCHist.vnet_1::samples          9514                       # delay histogram for vnet_1 (Unspecified)
system.ruby.delayVCHist.vnet_1::mean         0.000841                       # delay histogram for vnet_1 (Unspecified)
system.ruby.delayVCHist.vnet_1::stdev        0.057992                       # delay histogram for vnet_1 (Unspecified)
system.ruby.delayVCHist.vnet_1           |        9512     99.98%     99.98% |           0      0.00%     99.98% |           0      0.00%     99.98% |           0      0.00%     99.98% |           2      0.02%    100.00% |           0      0.00%    100.00% |           0      0.00%    100.00% |           0      0.00%    100.00% |           0      0.00%    100.00% |           0      0.00%    100.00% # delay histogram for vnet_1 (Unspecified)
system.ruby.delayVCHist.vnet_1::total            9514                       # delay histogram for vnet_1 (Unspecified)
system.ruby.delayVCHist.vnet_2::bucket_size            1                       # delay histogram for vnet_2 (Unspecified)
system.ruby.delayVCHist.vnet_2::max_bucket            9                       # delay histogram for vnet_2 (Unspecified)
system.ruby.delayVCHist.vnet_2::samples             5                       # delay histogram for vnet_2 (Unspecified)
system.ruby.delayVCHist.vnet_2           |           5    100.00%    100.00% |           0      0.00%    100.00% |           0      0.00%    100.00% |           0      0.00%    100.00% |           0      0.00%    100.00% |           0      0.00%    100.00% |           0      0.00%    100.00% |           0      0.00%    100.00% |           0      0.00%    100.00% |           0      0.00%    100.00% # delay histogram for vnet_2 (Unspecified)
system.ruby.delayVCHist.vnet_2::total               5                       # delay histogram for vnet_2 (Unspecified)
system.ruby.Directory_Controller.Fetch           3655      0.00%      0.00% (Unspecified)
system.ruby.Directory_Controller.Data               5      0.00%      0.00% (Unspecified)
system.ruby.Directory_Controller.Memory_Data         3655      0.00%      0.00% (Unspecified)
system.ruby.Directory_Controller.Memory_Ack            5      0.00%      0.00% (Unspecified)
system.ruby.Directory_Controller.DMA_READ            2      0.00%      0.00% (Unspecified)
system.ruby.Directory_Controller.DMA_WRITE            3      0.00%      0.00% (Unspecified)
system.ruby.Directory_Controller.I.Fetch         3655      0.00%      0.00% (Unspecified)
system.ruby.Directory_Controller.M.DMA_READ            2      0.00%      0.00% (Unspecified)
system.ruby.Directory_Controller.M.DMA_WRITE            3      0.00%      0.00% (Unspecified)
system.ruby.Directory_Controller.IM.Memory_Data         3655      0.00%      0.00% (Unspecified)
system.ruby.Directory_Controller.M_DRD.Data            2      0.00%      0.00% (Unspecified)
system.ruby.Directory_Controller.M_DRDI.Memory_Ack            2      0.00%      0.00% (Unspecified)
system.ruby.Directory_Controller.M_DWR.Data            3      0.00%      0.00% (Unspecified)
system.ruby.Directory_Controller.M_DWRI.Memory_Ack            3      0.00%      0.00% (Unspecified)
system.ruby.DMA_Controller.ReadRequest              2      0.00%      0.00% (Unspecified)
system.ruby.DMA_Controller.WriteRequest             3      0.00%      0.00% (Unspecified)
system.ruby.DMA_Controller.Data                     2      0.00%      0.00% (Unspecified)
system.ruby.DMA_Controller.Ack                      3      0.00%      0.00% (Unspecified)
system.ruby.DMA_Controller.READY.ReadRequest            2      0.00%      0.00% (Unspecified)
system.ruby.DMA_Controller.READY.WriteRequest            3      0.00%      0.00% (Unspecified)
system.ruby.DMA_Controller.BUSY_RD.Data             2      0.00%      0.00% (Unspecified)
system.ruby.DMA_Controller.BUSY_WR.Ack              3      0.00%      0.00% (Unspecified)
system.ruby.L1Cache_Controller.Load             82430      0.00%      0.00% (Unspecified)
system.ruby.L1Cache_Controller.Ifetch          479726      0.00%      0.00% (Unspecified)
system.ruby.L1Cache_Controller.Store            41134      0.00%      0.00% (Unspecified)
system.ruby.L1Cache_Controller.Inv                  5      0.00%      0.00% (Unspecified)
system.ruby.L1Cache_Controller.L1_Replacement         2472      0.00%      0.00% (Unspecified)
system.ruby.L1Cache_Controller.Data_Exclusive         2252      0.00%      0.00% (Unspecified)
system.ruby.L1Cache_Controller.Data_all_Acks         1744      0.00%      0.00% (Unspecified)
system.ruby.L1Cache_Controller.WB_Ack            1848      0.00%      0.00% (Unspecified)
system.ruby.L1Cache_Controller.NP.Load           2249      0.00%      0.00% (Unspecified)
system.ruby.L1Cache_Controller.NP.Ifetch         1121      0.00%      0.00% (Unspecified)
system.ruby.L1Cache_Controller.NP.Store           623      0.00%      0.00% (Unspecified)
system.ruby.L1Cache_Controller.I.Load               3      0.00%      0.00% (Unspecified)
system.ruby.L1Cache_Controller.S.Ifetch        478605      0.00%      0.00% (Unspecified)
system.ruby.L1Cache_Controller.S.L1_Replacement          624      0.00%      0.00% (Unspecified)
system.ruby.L1Cache_Controller.E.Load           29608      0.00%      0.00% (Unspecified)
system.ruby.L1Cache_Controller.E.Store             54      0.00%      0.00% (Unspecified)
system.ruby.L1Cache_Controller.E.L1_Replacement         1331      0.00%      0.00% (Unspecified)
system.ruby.L1Cache_Controller.M.Load           50570      0.00%      0.00% (Unspecified)
system.ruby.L1Cache_Controller.M.Store          40457      0.00%      0.00% (Unspecified)
system.ruby.L1Cache_Controller.M.Inv                5      0.00%      0.00% (Unspecified)
system.ruby.L1Cache_Controller.M.L1_Replacement          517      0.00%      0.00% (Unspecified)
system.ruby.L1Cache_Controller.IS.Data_Exclusive         2252      0.00%      0.00% (Unspecified)
system.ruby.L1Cache_Controller.IS.Data_all_Acks         1121      0.00%      0.00% (Unspecified)
system.ruby.L1Cache_Controller.IM.Data_all_Acks          623      0.00%      0.00% (Unspecified)
system.ruby.L1Cache_Controller.M_I.WB_Ack         1848      0.00%      0.00% (Unspecified)
system.ruby.L2Cache_Controller.L1_GET_INSTR         1121      0.00%      0.00% (Unspecified)
system.ruby.L2Cache_Controller.L1_GETS           2252      0.00%      0.00% (Unspecified)
system.ruby.L2Cache_Controller.L1_GETX            623      0.00%      0.00% (Unspecified)
system.ruby.L2Cache_Controller.L1_PUTX           1848      0.00%      0.00% (Unspecified)
system.ruby.L2Cache_Controller.Mem_Data          3655      0.00%      0.00% (Unspecified)
system.ruby.L2Cache_Controller.Mem_Ack              5      0.00%      0.00% (Unspecified)
system.ruby.L2Cache_Controller.WB_Data              5      0.00%      0.00% (Unspecified)
system.ruby.L2Cache_Controller.Exclusive_Unblock         2875      0.00%      0.00% (Unspecified)
system.ruby.L2Cache_Controller.MEM_Inv             10      0.00%      0.00% (Unspecified)
system.ruby.L2Cache_Controller.NP.L1_GET_INSTR         1071      0.00%      0.00% (Unspecified)
system.ruby.L2Cache_Controller.NP.L1_GETS         2017      0.00%      0.00% (Unspecified)
system.ruby.L2Cache_Controller.NP.L1_GETX          567      0.00%      0.00% (Unspecified)
system.ruby.L2Cache_Controller.SS.L1_GET_INSTR           50      0.00%      0.00% (Unspecified)
system.ruby.L2Cache_Controller.M.L1_GETS          235      0.00%      0.00% (Unspecified)
system.ruby.L2Cache_Controller.M.L1_GETX           56      0.00%      0.00% (Unspecified)
system.ruby.L2Cache_Controller.MT.L1_PUTX         1848      0.00%      0.00% (Unspecified)
system.ruby.L2Cache_Controller.MT.MEM_Inv            5      0.00%      0.00% (Unspecified)
system.ruby.L2Cache_Controller.M_I.Mem_Ack            5      0.00%      0.00% (Unspecified)
system.ruby.L2Cache_Controller.MT_I.WB_Data            5      0.00%      0.00% (Unspecified)
system.ruby.L2Cache_Controller.MT_I.MEM_Inv            5      0.00%      0.00% (Unspecified)
system.ruby.L2Cache_Controller.ISS.Mem_Data         2017      0.00%      0.00% (Unspecified)
system.ruby.L2Cache_Controller.IS.Mem_Data         1071      0.00%      0.00% (Unspecified)
system.ruby.L2Cache_Controller.IM.Mem_Data          567      0.00%      0.00% (Unspecified)
system.ruby.L2Cache_Controller.MT_MB.Exclusive_Unblock         2875      0.00%      0.00% (Unspecified)
system.ruby.RequestType.LD.latency_hist_seqr::bucket_size          128                       (Unspecified)
system.ruby.RequestType.LD.latency_hist_seqr::max_bucket         1279                       (Unspecified)
system.ruby.RequestType.LD.latency_hist_seqr::samples        82430                       (Unspecified)
system.ruby.RequestType.LD.latency_hist_seqr::mean     4.056545                       (Unspecified)
system.ruby.RequestType.LD.latency_hist_seqr::gmean     1.133367                       (Unspecified)
system.ruby.RequestType.LD.latency_hist_seqr::stdev    20.908319                       (Unspecified)
system.ruby.RequestType.LD.latency_hist_seqr |       82063     99.55%     99.55% |         334      0.41%     99.96% |           4      0.00%     99.96% |          10      0.01%     99.98% |          12      0.01%     99.99% |           7      0.01%    100.00% |           0      0.00%    100.00% |           0      0.00%    100.00% |           0      0.00%    100.00% |           0      0.00%    100.00% (Unspecified)
system.ruby.RequestType.LD.latency_hist_seqr::total        82430                       (Unspecified)
system.ruby.RequestType.LD.hit_latency_hist_seqr::bucket_size            1                       (Unspecified)
system.ruby.RequestType.LD.hit_latency_hist_seqr::max_bucket            9                       (Unspecified)
system.ruby.RequestType.LD.hit_latency_hist_seqr::samples        80178                       (Unspecified)
system.ruby.RequestType.LD.hit_latency_hist_seqr::mean            1                       (Unspecified)
system.ruby.RequestType.LD.hit_latency_hist_seqr::gmean            1                       (Unspecified)
system.ruby.RequestType.LD.hit_latency_hist_seqr |           0      0.00%      0.00% |       80178    100.00%    100.00% |           0      0.00%    100.00% |           0      0.00%    100.00% |           0      0.00%    100.00% |           0      0.00%    100.00% |           0      0.00%    100.00% |           0      0.00%    100.00% |           0      0.00%    100.00% |           0      0.00%    100.00% (Unspecified)
system.ruby.RequestType.LD.hit_latency_hist_seqr::total        80178                       (Unspecified)
system.ruby.RequestType.LD.miss_latency_hist_seqr::bucket_size          128                       (Unspecified)
system.ruby.RequestType.LD.miss_latency_hist_seqr::max_bucket         1279                       (Unspecified)
system.ruby.RequestType.LD.miss_latency_hist_seqr::samples         2252                       (Unspecified)
system.ruby.RequestType.LD.miss_latency_hist_seqr::mean   112.878774                       (Unspecified)
system.ruby.RequestType.LD.miss_latency_hist_seqr::gmean    97.753639                       (Unspecified)
system.ruby.RequestType.LD.miss_latency_hist_seqr::stdev    61.870057                       (Unspecified)
system.ruby.RequestType.LD.miss_latency_hist_seqr |        1885     83.70%     83.70% |         334     14.83%     98.53% |           4      0.18%     98.71% |          10      0.44%     99.16% |          12      0.53%     99.69% |           7      0.31%    100.00% |           0      0.00%    100.00% |           0      0.00%    100.00% |           0      0.00%    100.00% |           0      0.00%    100.00% (Unspecified)
system.ruby.RequestType.LD.miss_latency_hist_seqr::total         2252                       (Unspecified)
system.ruby.RequestType.ST.latency_hist_seqr::bucket_size          128                       (Unspecified)
system.ruby.RequestType.ST.latency_hist_seqr::max_bucket         1279                       (Unspecified)
system.ruby.RequestType.ST.latency_hist_seqr::samples        39875                       (Unspecified)
system.ruby.RequestType.ST.latency_hist_seqr::mean     2.730809                       (Unspecified)
system.ruby.RequestType.ST.latency_hist_seqr::gmean     1.072903                       (Unspecified)
system.ruby.RequestType.ST.latency_hist_seqr::stdev    15.990177                       (Unspecified)
system.ruby.RequestType.ST.latency_hist_seqr |       39793     99.79%     99.79% |          73      0.18%     99.98% |           1      0.00%     99.98% |           1      0.00%     99.98% |           4      0.01%     99.99% |           3      0.01%    100.00% |           0      0.00%    100.00% |           0      0.00%    100.00% |           0      0.00%    100.00% |           0      0.00%    100.00% (Unspecified)
system.ruby.RequestType.ST.latency_hist_seqr::total        39875                       (Unspecified)
system.ruby.RequestType.ST.hit_latency_hist_seqr::bucket_size            1                       (Unspecified)
system.ruby.RequestType.ST.hit_latency_hist_seqr::max_bucket            9                       (Unspecified)
system.ruby.RequestType.ST.hit_latency_hist_seqr::samples        39267                       (Unspecified)
system.ruby.RequestType.ST.hit_latency_hist_seqr::mean            1                       (Unspecified)
system.ruby.RequestType.ST.hit_latency_hist_seqr::gmean            1                       (Unspecified)
system.ruby.RequestType.ST.hit_latency_hist_seqr |           0      0.00%      0.00% |       39267    100.00%    100.00% |           0      0.00%    100.00% |           0      0.00%    100.00% |           0      0.00%    100.00% |           0      0.00%    100.00% |           0      0.00%    100.00% |           0      0.00%    100.00% |           0      0.00%    100.00% |           0      0.00%    100.00% (Unspecified)
system.ruby.RequestType.ST.hit_latency_hist_seqr::total        39267                       (Unspecified)
system.ruby.RequestType.ST.miss_latency_hist_seqr::bucket_size          128                       (Unspecified)
system.ruby.RequestType.ST.miss_latency_hist_seqr::max_bucket         1279                       (Unspecified)
system.ruby.RequestType.ST.miss_latency_hist_seqr::samples          608                       (Unspecified)
system.ruby.RequestType.ST.miss_latency_hist_seqr::mean   114.513158                       (Unspecified)
system.ruby.RequestType.ST.miss_latency_hist_seqr::gmean   100.985840                       (Unspecified)
system.ruby.RequestType.ST.miss_latency_hist_seqr::stdev    63.924944                       (Unspecified)
system.ruby.RequestType.ST.miss_latency_hist_seqr |         526     86.51%     86.51% |          73     12.01%     98.52% |           1      0.16%     98.68% |           1      0.16%     98.85% |           4      0.66%     99.51% |           3      0.49%    100.00% |           0      0.00%    100.00% |           0      0.00%    100.00% |           0      0.00%    100.00% |           0      0.00%    100.00% (Unspecified)
system.ruby.RequestType.ST.miss_latency_hist_seqr::total          608                       (Unspecified)
system.ruby.RequestType.IFETCH.latency_hist_seqr::bucket_size          128                       (Unspecified)
system.ruby.RequestType.IFETCH.latency_hist_seqr::max_bucket         1279                       (Unspecified)
system.ruby.RequestType.IFETCH.latency_hist_seqr::samples       479726                       (Unspecified)
system.ruby.RequestType.IFETCH.latency_hist_seqr::mean     1.272762                       (Unspecified)
system.ruby.RequestType.IFETCH.latency_hist_seqr::gmean     1.011018                       (Unspecified)
system.ruby.RequestType.IFETCH.latency_hist_seqr::stdev     6.220344                       (Unspecified)
system.ruby.RequestType.IFETCH.latency_hist_seqr |      479522     99.96%     99.96% |         193      0.04%    100.00% |           0      0.00%    100.00% |           0      0.00%    100.00% |          10      0.00%    100.00% |           1      0.00%    100.00% |           0      0.00%    100.00% |           0      0.00%    100.00% |           0      0.00%    100.00% |           0      0.00%    100.00% (Unspecified)
system.ruby.RequestType.IFETCH.latency_hist_seqr::total       479726                       (Unspecified)
system.ruby.RequestType.IFETCH.hit_latency_hist_seqr::bucket_size            1                       (Unspecified)
system.ruby.RequestType.IFETCH.hit_latency_hist_seqr::max_bucket            9                       (Unspecified)
system.ruby.RequestType.IFETCH.hit_latency_hist_seqr::samples       478605                       (Unspecified)
system.ruby.RequestType.IFETCH.hit_latency_hist_seqr::mean            1                       (Unspecified)
system.ruby.RequestType.IFETCH.hit_latency_hist_seqr::gmean            1                       (Unspecified)
system.ruby.RequestType.IFETCH.hit_latency_hist_seqr |           0      0.00%      0.00% |      478605    100.00%    100.00% |           0      0.00%    100.00% |           0      0.00%    100.00% |           0      0.00%    100.00% |           0      0.00%    100.00% |           0      0.00%    100.00% |           0      0.00%    100.00% |           0      0.00%    100.00% |           0      0.00%    100.00% (Unspecified)
system.ruby.RequestType.IFETCH.hit_latency_hist_seqr::total       478605                       (Unspecified)
system.ruby.RequestType.IFETCH.miss_latency_hist_seqr::bucket_size          128                       (Unspecified)
system.ruby.RequestType.IFETCH.miss_latency_hist_seqr::max_bucket         1279                       (Unspecified)
system.ruby.RequestType.IFETCH.miss_latency_hist_seqr::samples         1121                       (Unspecified)
system.ruby.RequestType.IFETCH.miss_latency_hist_seqr::mean   117.727029                       (Unspecified)
system.ruby.RequestType.IFETCH.miss_latency_hist_seqr::gmean   108.800453                       (Unspecified)
system.ruby.RequestType.IFETCH.miss_latency_hist_seqr::stdev    54.475506                       (Unspecified)
system.ruby.RequestType.IFETCH.miss_latency_hist_seqr |         917     81.80%     81.80% |         193     17.22%     99.02% |           0      0.00%     99.02% |           0      0.00%     99.02% |          10      0.89%     99.91% |           1      0.09%    100.00% |           0      0.00%    100.00% |           0      0.00%    100.00% |           0      0.00%    100.00% |           0      0.00%    100.00% (Unspecified)
system.ruby.RequestType.IFETCH.miss_latency_hist_seqr::total         1121                       (Unspecified)
system.ruby.RequestType.RMW_Read.latency_hist_seqr::bucket_size           32                       (Unspecified)
system.ruby.RequestType.RMW_Read.latency_hist_seqr::max_bucket          319                       (Unspecified)
system.ruby.RequestType.RMW_Read.latency_hist_seqr::samples         1239                       (Unspecified)
system.ruby.RequestType.RMW_Read.latency_hist_seqr::mean     2.016142                       (Unspecified)
system.ruby.RequestType.RMW_Read.latency_hist_seqr::gmean     1.050329                       (Unspecified)
system.ruby.RequestType.RMW_Read.latency_hist_seqr::stdev    11.209983                       (Unspecified)
system.ruby.RequestType.RMW_Read.latency_hist_seqr |        1230     99.27%     99.27% |           0      0.00%     99.27% |           0      0.00%     99.27% |           6      0.48%     99.76% |           0      0.00%     99.76% |           3      0.24%    100.00% |           0      0.00%    100.00% |           0      0.00%    100.00% |           0      0.00%    100.00% |           0      0.00%    100.00% (Unspecified)
system.ruby.RequestType.RMW_Read.latency_hist_seqr::total         1239                       (Unspecified)
system.ruby.RequestType.RMW_Read.hit_latency_hist_seqr::bucket_size            1                       (Unspecified)
system.ruby.RequestType.RMW_Read.hit_latency_hist_seqr::max_bucket            9                       (Unspecified)
system.ruby.RequestType.RMW_Read.hit_latency_hist_seqr::samples         1224                       (Unspecified)
system.ruby.RequestType.RMW_Read.hit_latency_hist_seqr::mean            1                       (Unspecified)
system.ruby.RequestType.RMW_Read.hit_latency_hist_seqr::gmean            1                       (Unspecified)
system.ruby.RequestType.RMW_Read.hit_latency_hist_seqr |           0      0.00%      0.00% |        1224    100.00%    100.00% |           0      0.00%    100.00% |           0      0.00%    100.00% |           0      0.00%    100.00% |           0      0.00%    100.00% |           0      0.00%    100.00% |           0      0.00%    100.00% |           0      0.00%    100.00% |           0      0.00%    100.00% (Unspecified)
system.ruby.RequestType.RMW_Read.hit_latency_hist_seqr::total         1224                       (Unspecified)
system.ruby.RequestType.RMW_Read.miss_latency_hist_seqr::bucket_size           32                       (Unspecified)
system.ruby.RequestType.RMW_Read.miss_latency_hist_seqr::max_bucket          319                       (Unspecified)
system.ruby.RequestType.RMW_Read.miss_latency_hist_seqr::samples           15                       (Unspecified)
system.ruby.RequestType.RMW_Read.miss_latency_hist_seqr::mean    84.933333                       (Unspecified)
system.ruby.RequestType.RMW_Read.miss_latency_hist_seqr::gmean    57.739550                       (Unspecified)
system.ruby.RequestType.RMW_Read.miss_latency_hist_seqr::stdev    60.461873                       (Unspecified)
system.ruby.RequestType.RMW_Read.miss_latency_hist_seqr |           6     40.00%     40.00% |           0      0.00%     40.00% |           0      0.00%     40.00% |           6     40.00%     80.00% |           0      0.00%     80.00% |           3     20.00%    100.00% |           0      0.00%    100.00% |           0      0.00%    100.00% |           0      0.00%    100.00% |           0      0.00%    100.00% (Unspecified)
system.ruby.RequestType.RMW_Read.miss_latency_hist_seqr::total           15                       (Unspecified)
system.ruby.RequestType.Locked_RMW_Read.latency_hist_seqr::bucket_size            1                       (Unspecified)
[...]
system.ruby.network.routers3.msg_count.Writeback_Control::1            3                       (Unspecified)
system.ruby.network.routers3.msg_bytes.Writeback_Control::0           40                       (Unspecified)
system.ruby.network.routers3.msg_bytes.Writeback_Control::1           24                       (Unspecified)
system.ruby.network.routers3.port_buffers1.m_msg_count            5                       # Number of messages passed the buffer (Count)
system.ruby.network.routers3.port_buffers1.m_buf_msgs     0.000003                       # Average number of messages in buffer ((Count/Tick))
system.ruby.network.routers3.port_buffers3.m_msg_count            5                       # Number of messages passed the buffer (Count)
system.ruby.network.routers3.port_buffers3.m_buf_msgs     0.000003                       # Average number of messages in buffer ((Count/Tick))
system.ruby.network.routers3.power_state.pwrStateResidencyTicks::UNDEFINED    830245000                       # Cumulative time (in ticks) in various power states (Tick)
system.ruby.network.routers3.throttle00.acc_link_utilization    10.500000                       # Accumulated link utilization (Count)
system.ruby.network.routers3.throttle00.link_utilization     0.000632                       # Average link utilization (Ratio)
system.ruby.network.routers3.throttle00.total_msg_count            5                       # Total number of messages forwarded by this switch (Count)
system.ruby.network.routers3.throttle00.total_msg_bytes          168                       # Total number of bytes forwarded by this switch (Byte)
system.ruby.network.routers3.throttle00.total_data_msg_bytes          128                       # Total number of data bytes forwarded by this switch (Byte)
system.ruby.network.routers3.throttle00.total_msg_wait_time            0                       # Total time spend forwarding messages (Tick)
system.ruby.network.routers3.throttle00.total_stall_cy            0                       # Total time spent blocked on any output link (Cycle)
system.ruby.network.routers3.throttle00.total_bw_sat_cy            8                       # Total time bandwidth was saturated on any output link (Cycle)
system.ruby.network.routers3.throttle00.avg_msg_wait_time            0                       # Average time a message took to be forwarded (Ratio)
system.ruby.network.routers3.throttle00.avg_bandwidth         0.00                       # Average bandwidth (GB/s) (Ratio)
system.ruby.network.routers3.throttle00.avg_useful_bandwidth         0.00                       # Average usefull (only data) bandwidth (GB/s) (Ratio)
system.ruby.network.routers3.throttle00.msg_count.Response_Data::1            2                       (Unspecified)
system.ruby.network.routers3.throttle00.msg_bytes.Response_Data::1          144                       (Unspecified)
system.ruby.network.routers3.throttle00.msg_count.Writeback_Control::1            3                       (Unspecified)
system.ruby.network.routers3.throttle00.msg_bytes.Writeback_Control::1           24                       (Unspecified)
system.ruby.network.routers3.throttle01.acc_link_utilization     2.500000                       # Accumulated link utilization (Count)
system.ruby.network.routers3.throttle01.link_utilization     0.000151                       # Average link utilization (Ratio)
system.ruby.network.routers3.throttle01.total_msg_count            5                       # Total number of messages forwarded by this switch (Count)
system.ruby.network.routers3.throttle01.total_msg_bytes           40                       # Total number of bytes forwarded by this switch (Byte)
system.ruby.network.routers3.throttle01.total_data_msg_bytes            0                       # Total number of data bytes forwarded by this switch (Byte)
system.ruby.network.routers3.throttle01.total_msg_wait_time            0                       # Total time spend forwarding messages (Tick)
system.ruby.network.routers3.throttle01.total_stall_cy            0                       # Total time spent blocked on any output link (Cycle)
system.ruby.network.routers3.throttle01.total_bw_sat_cy            0                       # Total time bandwidth was saturated on any output link (Cycle)
system.ruby.network.routers3.throttle01.avg_msg_wait_time            0                       # Average time a message took to be forwarded (Ratio)
system.ruby.network.routers3.throttle01.avg_bandwidth         0.00                       # Average bandwidth (GB/s) (Ratio)
system.ruby.network.routers3.throttle01.avg_useful_bandwidth         0.00                       # Average usefull (only data) bandwidth (GB/s) (Ratio)
system.ruby.network.routers3.throttle01.msg_count.Writeback_Control::0            5                       (Unspecified)
system.ruby.network.routers3.throttle01.msg_bytes.Writeback_Control::0           40                       (Unspecified)
system.ruby.network.routers4.percent_links_utilized     0.657547                       (Unspecified)
system.ruby.network.routers4.msg_count.Control::0         7651                       (Unspecified)
system.ruby.network.routers4.msg_bytes.Control::0        61208                       (Unspecified)
system.ruby.network.routers4.msg_count.Request_Control::2            5                       (Unspecified)
system.ruby.network.routers4.msg_bytes.Request_Control::2           40                       (Unspecified)
system.ruby.network.routers4.msg_count.Response_Data::1         7658                       (Unspecified)
system.ruby.network.routers4.msg_bytes.Response_Data::1       551376                       (Unspecified)
system.ruby.network.routers4.msg_count.Response_Control::1         1858                       (Unspecified)
system.ruby.network.routers4.msg_count.Response_Control::2         2875                       (Unspecified)
system.ruby.network.routers4.msg_bytes.Response_Control::1        14864                       (Unspecified)
system.ruby.network.routers4.msg_bytes.Response_Control::2        23000                       (Unspecified)
system.ruby.network.routers4.msg_count.Writeback_Data::0          517                       (Unspecified)
system.ruby.network.routers4.msg_count.Writeback_Data::1            5                       (Unspecified)
system.ruby.network.routers4.msg_bytes.Writeback_Data::0        37224                       (Unspecified)
system.ruby.network.routers4.msg_bytes.Writeback_Data::1          360                       (Unspecified)
system.ruby.network.routers4.msg_count.Writeback_Control::0         1336                       (Unspecified)
system.ruby.network.routers4.msg_count.Writeback_Control::1            3                       (Unspecified)
system.ruby.network.routers4.msg_bytes.Writeback_Control::0        10688                       (Unspecified)
system.ruby.network.routers4.msg_bytes.Writeback_Control::1           24                       (Unspecified)
system.ruby.network.routers4.port_buffers1.m_msg_count         5844                       # Number of messages passed the buffer (Count)
system.ruby.network.routers4.port_buffers1.m_buf_msgs     0.003519                       # Average number of messages in buffer ((Count/Tick))
system.ruby.network.routers4.port_buffers10.m_msg_count            5                       # Number of messages passed the buffer (Count)
system.ruby.network.routers4.port_buffers10.m_buf_msgs     0.000003                       # Average number of messages in buffer ((Count/Tick))
system.ruby.network.routers4.port_buffers2.m_msg_count            5                       # Number of messages passed the buffer (Count)
system.ruby.network.routers4.port_buffers2.m_buf_msgs     0.000003                       # Average number of messages in buffer ((Count/Tick))
system.ruby.network.routers4.port_buffers3.m_msg_count         5844                       # Number of messages passed the buffer (Count)
system.ruby.network.routers4.port_buffers3.m_buf_msgs     0.003519                       # Average number of messages in buffer ((Count/Tick))
system.ruby.network.routers4.port_buffers4.m_msg_count         3670                       # Number of messages passed the buffer (Count)
system.ruby.network.routers4.port_buffers4.m_buf_msgs     0.002210                       # Average number of messages in buffer ((Count/Tick))
system.ruby.network.routers4.port_buffers5.m_msg_count         2875                       # Number of messages passed the buffer (Count)
system.ruby.network.routers4.port_buffers5.m_buf_msgs     0.001731                       # Average number of messages in buffer ((Count/Tick))
system.ruby.network.routers4.port_buffers6.m_msg_count         3660                       # Number of messages passed the buffer (Count)
system.ruby.network.routers4.port_buffers6.m_buf_msgs     0.002204                       # Average number of messages in buffer ((Count/Tick))
system.ruby.network.routers4.port_buffers7.m_msg_count            5                       # Number of messages passed the buffer (Count)
system.ruby.network.routers4.port_buffers7.m_buf_msgs     0.000003                       # Average number of messages in buffer ((Count/Tick))
system.ruby.network.routers4.power_state.pwrStateResidencyTicks::UNDEFINED    830245000                       # Cumulative time (in ticks) in various power states (Tick)
system.ruby.network.routers4.throttle00.acc_link_utilization 18908.500000                       # Accumulated link utilization (Count)
system.ruby.network.routers4.throttle00.link_utilization     1.138730                       # Average link utilization (Ratio)
system.ruby.network.routers4.throttle00.total_msg_count         5849                       # Total number of messages forwarded by this switch (Count)
system.ruby.network.routers4.throttle00.total_msg_bytes       302536                       # Total number of bytes forwarded by this switch (Byte)
system.ruby.network.routers4.throttle00.total_data_msg_bytes       255744                       # Total number of data bytes forwarded by this switch (Byte)
system.ruby.network.routers4.throttle00.total_msg_wait_time            0                       # Total time spend forwarding messages (Tick)
system.ruby.network.routers4.throttle00.total_stall_cy            0                       # Total time spent blocked on any output link (Cycle)
system.ruby.network.routers4.throttle00.total_bw_sat_cy        15984                       # Total time bandwidth was saturated on any output link (Cycle)
system.ruby.network.routers4.throttle00.avg_msg_wait_time            0                       # Average time a message took to be forwarded (Ratio)
system.ruby.network.routers4.throttle00.avg_bandwidth         0.34                       # Average bandwidth (GB/s) (Ratio)
system.ruby.network.routers4.throttle00.avg_useful_bandwidth         0.29                       # Average usefull (only data) bandwidth (GB/s) (Ratio)
system.ruby.network.routers4.throttle00.msg_count.Request_Control::2            5                       (Unspecified)
system.ruby.network.routers4.throttle00.msg_bytes.Request_Control::2           40                       (Unspecified)
system.ruby.network.routers4.throttle00.msg_count.Response_Data::1         3996                       (Unspecified)
system.ruby.network.routers4.throttle00.msg_bytes.Response_Data::1       287712                       (Unspecified)
system.ruby.network.routers4.throttle00.msg_count.Response_Control::1         1848                       (Unspecified)
system.ruby.network.routers4.throttle00.msg_bytes.Response_Control::1        14784                       (Unspecified)
system.ruby.network.routers4.throttle01.acc_link_utilization 22902.500000                       # Accumulated link utilization (Count)
system.ruby.network.routers4.throttle01.link_utilization     1.379262                       # Average link utilization (Ratio)
system.ruby.network.routers4.throttle01.total_msg_count        12389                       # Total number of messages forwarded by this switch (Count)
system.ruby.network.routers4.throttle01.total_msg_bytes       366440                       # Total number of bytes forwarded by this switch (Byte)
system.ruby.network.routers4.throttle01.total_data_msg_bytes       267328                       # Total number of data bytes forwarded by this switch (Byte)
system.ruby.network.routers4.throttle01.total_msg_wait_time            0                       # Total time spend forwarding messages (Tick)
system.ruby.network.routers4.throttle01.total_stall_cy            0                       # Total time spent blocked on any output link (Cycle)
system.ruby.network.routers4.throttle01.total_bw_sat_cy        16708                       # Total time bandwidth was saturated on any output link (Cycle)
system.ruby.network.routers4.throttle01.avg_msg_wait_time            0                       # Average time a message took to be forwarded (Ratio)
system.ruby.network.routers4.throttle01.avg_bandwidth         0.41                       # Average bandwidth (GB/s) (Ratio)
system.ruby.network.routers4.throttle01.avg_useful_bandwidth         0.30                       # Average usefull (only data) bandwidth (GB/s) (Ratio)
system.ruby.network.routers4.throttle01.msg_count.Control::0         3996                       (Unspecified)
system.ruby.network.routers4.throttle01.msg_bytes.Control::0        31968                       (Unspecified)
system.ruby.network.routers4.throttle01.msg_count.Response_Data::1         3655                       (Unspecified)
system.ruby.network.routers4.throttle01.msg_bytes.Response_Data::1       263160                       (Unspecified)
system.ruby.network.routers4.throttle01.msg_count.Response_Control::1           10                       (Unspecified)
system.ruby.network.routers4.throttle01.msg_count.Response_Control::2         2875                       (Unspecified)
system.ruby.network.routers4.throttle01.msg_bytes.Response_Control::1           80                       (Unspecified)
system.ruby.network.routers4.throttle01.msg_bytes.Response_Control::2        23000                       (Unspecified)
system.ruby.network.routers4.throttle01.msg_count.Writeback_Data::0          517                       (Unspecified)
system.ruby.network.routers4.throttle01.msg_count.Writeback_Data::1            5                       (Unspecified)
system.ruby.network.routers4.throttle01.msg_bytes.Writeback_Data::0        37224                       (Unspecified)
system.ruby.network.routers4.throttle01.msg_bytes.Writeback_Data::1          360                       (Unspecified)
system.ruby.network.routers4.throttle01.msg_count.Writeback_Control::0         1331                       (Unspecified)
system.ruby.network.routers4.throttle01.msg_bytes.Writeback_Control::0        10648                       (Unspecified)
system.ruby.network.routers4.throttle02.acc_link_utilization  1852.500000                       # Accumulated link utilization (Count)
system.ruby.network.routers4.throttle02.link_utilization     0.111563                       # Average link utilization (Ratio)
system.ruby.network.routers4.throttle02.total_msg_count         3665                       # Total number of messages forwarded by this switch (Count)
system.ruby.network.routers4.throttle02.total_msg_bytes        29640                       # Total number of bytes forwarded by this switch (Byte)
system.ruby.network.routers4.throttle02.total_data_msg_bytes          320                       # Total number of data bytes forwarded by this switch (Byte)
system.ruby.network.routers4.throttle02.total_msg_wait_time            0                       # Total time spend forwarding messages (Tick)
system.ruby.network.routers4.throttle02.total_stall_cy            0                       # Total time spent blocked on any output link (Cycle)
system.ruby.network.routers4.throttle02.total_bw_sat_cy           20                       # Total time bandwidth was saturated on any output link (Cycle)
system.ruby.network.routers4.throttle02.avg_msg_wait_time            0                       # Average time a message took to be forwarded (Ratio)
system.ruby.network.routers4.throttle02.avg_bandwidth         0.03                       # Average bandwidth (GB/s) (Ratio)
system.ruby.network.routers4.throttle02.avg_useful_bandwidth         0.00                       # Average usefull (only data) bandwidth (GB/s) (Ratio)
system.ruby.network.routers4.throttle02.msg_count.Control::0         3655                       (Unspecified)
system.ruby.network.routers4.throttle02.msg_bytes.Control::0        29240                       (Unspecified)
system.ruby.network.routers4.throttle02.msg_count.Response_Data::1            5                       (Unspecified)
system.ruby.network.routers4.throttle02.msg_bytes.Response_Data::1          360                       (Unspecified)
system.ruby.network.routers4.throttle02.msg_count.Writeback_Control::0            5                       (Unspecified)
system.ruby.network.routers4.throttle02.msg_bytes.Writeback_Control::0           40                       (Unspecified)
system.ruby.network.routers4.throttle03.acc_link_utilization    10.500000                       # Accumulated link utilization (Count)
system.ruby.network.routers4.throttle03.link_utilization     0.000632                       # Average link utilization (Ratio)
system.ruby.network.routers4.throttle03.total_msg_count            5                       # Total number of messages forwarded by this switch (Count)
system.ruby.network.routers4.throttle03.total_msg_bytes          168                       # Total number of bytes forwarded by this switch (Byte)
system.ruby.network.routers4.throttle03.total_data_msg_bytes          128                       # Total number of data bytes forwarded by this switch (Byte)
system.ruby.network.routers4.throttle03.total_msg_wait_time            0                       # Total time spend forwarding messages (Tick)
system.ruby.network.routers4.throttle03.total_stall_cy            0                       # Total time spent blocked on any output link (Cycle)
system.ruby.network.routers4.throttle03.total_bw_sat_cy            8                       # Total time bandwidth was saturated on any output link (Cycle)
system.ruby.network.routers4.throttle03.avg_msg_wait_time            0                       # Average time a message took to be forwarded (Ratio)
system.ruby.network.routers4.throttle03.avg_bandwidth         0.00                       # Average bandwidth (GB/s) (Ratio)
system.ruby.network.routers4.throttle03.avg_useful_bandwidth         0.00                       # Average usefull (only data) bandwidth (GB/s) (Ratio)
system.ruby.network.routers4.throttle03.msg_count.Response_Data::1            2                       (Unspecified)
system.ruby.network.routers4.throttle03.msg_bytes.Response_Data::1          144                       (Unspecified)
system.ruby.network.routers4.throttle03.msg_count.Writeback_Control::1            3                       (Unspecified)
system.ruby.network.routers4.throttle03.msg_bytes.Writeback_Control::1           24                       (Unspecified)
system.ruby.power_state.pwrStateResidencyTicks::UNDEFINED    830245000                       # Cumulative time (in ticks) in various power states (Tick)
system.sys_port_proxy.power_state.pwrStateResidencyTicks::UNDEFINED    830245000                       # Cumulative time (in ticks) in various power states (Tick)
system.voltage_domain.voltage                       1                       # Voltage in Volts (Volt)
system.workload.inst.arm                            0                       # number of arm instructions executed (Count)
system.workload.inst.quiesce                        0                       # number of quiesce instructions executed (Count)

---------- End Simulation Statistics   ----------
